Pcp_File_Version=4
    2
    1  0.000000e+000  1.000000e+000  1.000000e+000
    2 -4.000000e+001  1.000000e+000  1.000000e+000
  101    1    1    0 x         h      Mat  Lay      Beta           Axz            Bxz            Dxz          Temp          Conc            SConc
    1 -0.000000e+000  1.400000e+002    1    1  0.000000e+000  1.000000e+000  1.000000e+000  1.000000e+000  2.000000e+001  3.200000e-002  5.300000e-003
    2 -4.000000e-001  1.396000e+002    1    1  0.000000e+000  1.000000e+000  1.000000e+000  1.000000e+000  2.000000e+001  3.200000e-002  5.300000e-003
    3 -8.000000e-001  1.392000e+002    1    1  0.000000e+000  1.000000e+000  1.000000e+000  1.000000e+000  2.000000e+001  3.200000e-002  5.300000e-003
    4 -1.200000e+000  1.388000e+002    1    1  0.000000e+000  1.000000e+000  1.000000e+000  1.000000e+000  2.000000e+001  3.200000e-002  5.300000e-003
    5 -1.600000e+000  1.384000e+002    1    1  0.000000e+000  1.000000e+000  1.000000e+000  1.000000e+000  2.000000e+001  3.200000e-002  5.300000e-003
    6 -2.000000e+000  1.380000e+002    1    1  0.000000e+000  1.000000e+000  1.000000e+000  1.000000e+000  2.000000e+001  3.200000e-002  5.300000e-003
    7 -2.400000e+000  1.376000e+002    1    1  0.000000e+000  1.000000e+000  1.000000e+000  1.000000e+000  2.000000e+001  3.200000e-002  5.300000e-003
    8 -2.800000e+000  1.372000e+002    1    1  0.000000e+000  1.000000e+000  1.000000e+000  1.000000e+000  2.000000e+001  3.200000e-002  5.300000e-003
    9 -3.200000e+000  1.368000e+002    1    1  0.000000e+000  1.000000e+000  1.000000e+000  1.000000e+000  2.000000e+001  3.200000e-002  5.300000e-003
   10 -3.600000e+000  1.364000e+002    1    1  0.000000e+000  1.000000e+000  1.000000e+000  1.000000e+000  2.000000e+001  3.200000e-002  5.300000e-003
   11 -4.000000e+000  1.360000e+002    1    1  0.000000e+000  1.000000e+000  1.000000e+000  1.000000e+000  2.000000e+001  3.200000e-002  5.300000e-003
   12 -4.400000e+000  1.356000e+002    1    1  0.000000e+000  1.000000e+000  1.000000e+000  1.000000e+000  2.000000e+001  3.200000e-002  5.300000e-003
   13 -4.800000e+000  1.352000e+002    1    1  0.000000e+000  1.000000e+000  1.000000e+000  1.000000e+000  2.000000e+001  3.200000e-002  5.300000e-003
   14 -5.200000e+000  1.348000e+002    1    1  0.000000e+000  1.000000e+000  1.000000e+000  1.000000e+000  2.000000e+001  3.200000e-002  5.300000e-003
   15 -5.600000e+000  1.344000e+002    1    1  0.000000e+000  1.000000e+000  1.000000e+000  1.000000e+000  2.000000e+001  3.200000e-002  5.300000e-003
   16 -6.000000e+000  1.340000e+002    1    1  0.000000e+000  1.000000e+000  1.000000e+000  1.000000e+000  2.000000e+001  3.200000e-002  5.300000e-003
   17 -6.400000e+000  1.336000e+002    1    1  0.000000e+000  1.000000e+000  1.000000e+000  1.000000e+000  2.000000e+001  3.200000e-002  5.300000e-003
   18 -6.800000e+000  1.332000e+002    1    1  0.000000e+000  1.000000e+000  1.000000e+000  1.000000e+000  2.000000e+001  3.200000e-002  5.300000e-003
   19 -7.200000e+000  1.328000e+002    1    1  0.000000e+000  1.000000e+000  1.000000e+000  1.000000e+000  2.000000e+001  3.200000e-002  5.300000e-003
   20 -7.600000e+000  1.324000e+002    1    1  0.000000e+000  1.000000e+000  1.000000e+000  1.000000e+000  2.000000e+001  3.200000e-002  5.300000e-003
   21 -8.000000e+000  1.320000e+002    1    1  0.000000e+000  1.000000e+000  1.000000e+000  1.000000e+000  2.000000e+001  3.200000e-002  5.300000e-003
   22 -8.400000e+000  1.316000e+002    1    1  0.000000e+000  1.000000e+000  1.000000e+000  1.000000e+000  2.000000e+001  3.200000e-002  5.300000e-003
   23 -8.800000e+000  1.312000e+002    1    1  0.000000e+000  1.000000e+000  1.000000e+000  1.000000e+000  2.000000e+001  3.200000e-002  5.300000e-003
   24 -9.200000e+000  1.308000e+002    1    1  0.000000e+000  1.000000e+000  1.000000e+000  1.000000e+000  2.000000e+001  3.200000e-002  5.300000e-003
   25 -9.600000e+000  1.304000e+002    1    1  0.000000e+000  1.000000e+000  1.000000e+000  1.000000e+000  2.000000e+001  3.200000e-002  5.300000e-003
   26 -1.000000e+001  1.300000e+002    1    1  0.000000e+000  1.000000e+000  1.000000e+000  1.000000e+000  2.000000e+001  3.200000e-002  5.300000e-003
   27 -1.040000e+001  1.296000e+002    1    1  0.000000e+000  1.000000e+000  1.000000e+000  1.000000e+000  2.000000e+001  3.200000e-002  5.300000e-003
   28 -1.080000e+001  1.292000e+002    1    1  0.000000e+000  1.000000e+000  1.000000e+000  1.000000e+000  2.000000e+001  3.200000e-002  5.300000e-003
   29 -1.120000e+001  1.288000e+002    1    1  0.000000e+000  1.000000e+000  1.000000e+000  1.000000e+000  2.000000e+001  3.200000e-002  5.300000e-003
   30 -1.160000e+001  1.284000e+002    1    1  0.000000e+000  1.000000e+000  1.000000e+000  1.000000e+000  2.000000e+001  3.200000e-002  5.300000e-003
   31 -1.200000e+001  1.280000e+002    1    1  0.000000e+000  1.000000e+000  1.000000e+000  1.000000e+000  2.000000e+001  3.200000e-002  5.300000e-003
   32 -1.240000e+001  1.276000e+002    1    1  0.000000e+000  1.000000e+000  1.000000e+000  1.000000e+000  2.000000e+001  3.200000e-002  5.300000e-003
   33 -1.280000e+001  1.272000e+002    1    1  0.000000e+000  1.000000e+000  1.000000e+000  1.000000e+000  2.000000e+001  3.200000e-002  5.300000e-003
   34 -1.320000e+001  1.268000e+002    1    1  0.000000e+000  1.000000e+000  1.000000e+000  1.000000e+000  2.000000e+001  3.200000e-002  5.300000e-003
   35 -1.360000e+001  1.264000e+002    1    1  0.000000e+000  1.000000e+000  1.000000e+000  1.000000e+000  2.000000e+001  3.200000e-002  5.300000e-003
   36 -1.400000e+001  1.260000e+002    1    1  0.000000e+000  1.000000e+000  1.000000e+000  1.000000e+000  2.000000e+001  3.200000e-002  5.300000e-003
   37 -1.440000e+001  1.256000e+002    1    1  0.000000e+000  1.000000e+000  1.000000e+000  1.000000e+000  2.000000e+001  3.200000e-002  5.300000e-003
   38 -1.480000e+001  1.252000e+002    1    1  0.000000e+000  1.000000e+000  1.000000e+000  1.000000e+000  2.000000e+001  3.200000e-002  5.300000e-003
   39 -1.520000e+001  1.248000e+002    1    1  0.000000e+000  1.000000e+000  1.000000e+000  1.000000e+000  2.000000e+001  3.200000e-002  5.300000e-003
   40 -1.560000e+001  1.244000e+002    1    1  0.000000e+000  1.000000e+000  1.000000e+000  1.000000e+000  2.000000e+001  3.200000e-002  5.300000e-003
   41 -1.600000e+001  1.240000e+002    1    1  0.000000e+000  1.000000e+000  1.000000e+000  1.000000e+000  2.000000e+001  3.200000e-002  5.300000e-003
   42 -1.640000e+001  1.236000e+002    1    1  0.000000e+000  1.000000e+000  1.000000e+000  1.000000e+000  2.000000e+001  3.200000e-002  5.300000e-003
   43 -1.680000e+001  1.232000e+002    1    1  0.000000e+000  1.000000e+000  1.000000e+000  1.000000e+000  2.000000e+001  3.200000e-002  5.300000e-003
   44 -1.720000e+001  1.228000e+002    1    1  0.000000e+000  1.000000e+000  1.000000e+000  1.000000e+000  2.000000e+001  3.200000e-002  5.300000e-003
   45 -1.760000e+001  1.224000e+002    1    1  0.000000e+000  1.000000e+000  1.000000e+000  1.000000e+000  2.000000e+001  3.200000e-002  5.300000e-003
   46 -1.800000e+001  1.220000e+002    1    1  0.000000e+000  1.000000e+000  1.000000e+000  1.000000e+000  2.000000e+001  3.200000e-002  5.300000e-003
   47 -1.840000e+001  1.216000e+002    1    1  0.000000e+000  1.000000e+000  1.000000e+000  1.000000e+000  2.000000e+001  3.200000e-002  5.300000e-003
   48 -1.880000e+001  1.212000e+002    1    1  0.000000e+000  1.000000e+000  1.000000e+000  1.000000e+000  2.000000e+001  3.200000e-002  5.300000e-003
   49 -1.920000e+001  1.208000e+002    1    1  0.000000e+000  1.000000e+000  1.000000e+000  1.000000e+000  2.000000e+001  3.200000e-002  5.300000e-003
   50 -1.960000e+001  1.204000e+002    1    1  0.000000e+000  1.000000e+000  1.000000e+000  1.000000e+000  2.000000e+001  3.200000e-002  5.300000e-003
   51 -2.000000e+001  1.200000e+002    1    1  0.000000e+000  1.000000e+000  1.000000e+000  1.000000e+000  2.000000e+001  3.200000e-002  5.300000e-003
   52 -2.040000e+001  1.196000e+002    1    1  0.000000e+000  1.000000e+000  1.000000e+000  1.000000e+000  2.000000e+001  3.200000e-002  5.300000e-003
   53 -2.080000e+001  1.192000e+002    1    1  0.000000e+000  1.000000e+000  1.000000e+000  1.000000e+000  2.000000e+001  3.200000e-002  5.300000e-003
   54 -2.120000e+001  1.188000e+002    1    1  0.000000e+000  1.000000e+000  1.000000e+000  1.000000e+000  2.000000e+001  3.200000e-002  5.300000e-003
   55 -2.160000e+001  1.184000e+002    1    1  0.000000e+000  1.000000e+000  1.000000e+000  1.000000e+000  2.000000e+001  3.200000e-002  5.300000e-003
   56 -2.200000e+001  1.180000e+002    1    1  0.000000e+000  1.000000e+000  1.000000e+000  1.000000e+000  2.000000e+001  3.200000e-002  5.300000e-003
   57 -2.240000e+001  1.176000e+002    1    1  0.000000e+000  1.000000e+000  1.000000e+000  1.000000e+000  2.000000e+001  3.200000e-002  5.300000e-003
   58 -2.280000e+001  1.172000e+002    1    1  0.000000e+000  1.000000e+000  1.000000e+000  1.000000e+000  2.000000e+001  3.200000e-002  5.300000e-003
   59 -2.320000e+001  1.168000e+002    1    1  0.000000e+000  1.000000e+000  1.000000e+000  1.000000e+000  2.000000e+001  3.200000e-002  5.300000e-003
   60 -2.360000e+001  1.164000e+002    1    1  0.000000e+000  1.000000e+000  1.000000e+000  1.000000e+000  2.000000e+001  3.200000e-002  5.300000e-003
   61 -2.400000e+001  1.160000e+002    1    1  0.000000e+000  1.000000e+000  1.000000e+000  1.000000e+000  2.000000e+001  3.200000e-002  5.300000e-003
   62 -2.440000e+001  1.156000e+002    1    1  0.000000e+000  1.000000e+000  1.000000e+000  1.000000e+000  2.000000e+001  3.200000e-002  5.300000e-003
   63 -2.480000e+001  1.152000e+002    1    1  0.000000e+000  1.000000e+000  1.000000e+000  1.000000e+000  2.000000e+001  3.200000e-002  5.300000e-003
   64 -2.520000e+001  1.148000e+002    1    1  0.000000e+000  1.000000e+000  1.000000e+000  1.000000e+000  2.000000e+001  3.200000e-002  5.300000e-003
   65 -2.560000e+001  1.144000e+002    1    1  0.000000e+000  1.000000e+000  1.000000e+000  1.000000e+000  2.000000e+001  3.200000e-002  5.300000e-003
   66 -2.600000e+001  1.140000e+002    1    1  0.000000e+000  1.000000e+000  1.000000e+000  1.000000e+000  2.000000e+001  3.200000e-002  5.300000e-003
   67 -2.640000e+001  1.136000e+002    1    1  0.000000e+000  1.000000e+000  1.000000e+000  1.000000e+000  2.000000e+001  3.200000e-002  5.300000e-003
   68 -2.680000e+001  1.132000e+002    1    1  0.000000e+000  1.000000e+000  1.000000e+000  1.000000e+000  2.000000e+001  3.200000e-002  5.300000e-003
   69 -2.720000e+001  1.128000e+002    1    1  0.000000e+000  1.000000e+000  1.000000e+000  1.000000e+000  2.000000e+001  3.200000e-002  5.300000e-003
   70 -2.760000e+001  1.124000e+002    1    1  0.000000e+000  1.000000e+000  1.000000e+000  1.000000e+000  2.000000e+001  3.200000e-002  5.300000e-003
   71 -2.800000e+001  1.120000e+002    1    1  0.000000e+000  1.000000e+000  1.000000e+000  1.000000e+000  2.000000e+001  3.200000e-002  5.300000e-003
   72 -2.840000e+001  1.116000e+002    1    1  0.000000e+000  1.000000e+000  1.000000e+000  1.000000e+000  2.000000e+001  3.200000e-002  5.300000e-003
   73 -2.880000e+001  1.112000e+002    1    1  0.000000e+000  1.000000e+000  1.000000e+000  1.000000e+000  2.000000e+001  3.200000e-002  5.300000e-003
   74 -2.920000e+001  1.108000e+002    1    1  0.000000e+000  1.000000e+000  1.000000e+000  1.000000e+000  2.000000e+001  3.200000e-002  5.300000e-003
   75 -2.960000e+001  1.104000e+002    1    1  0.000000e+000  1.000000e+000  1.000000e+000  1.000000e+000  2.000000e+001  3.200000e-002  5.300000e-003
   76 -3.000000e+001  1.100000e+002    1    1  0.000000e+000  1.000000e+000  1.000000e+000  1.000000e+000  2.000000e+001  3.200000e-002  5.300000e-003
   77 -3.040000e+001  1.096000e+002    1    1  0.000000e+000  1.000000e+000  1.000000e+000  1.000000e+000  2.000000e+001  3.200000e-002  5.300000e-003
   78 -3.080000e+001  1.092000e+002    1    1  0.000000e+000  1.000000e+000  1.000000e+000  1.000000e+000  2.000000e+001  3.200000e-002  5.300000e-003
   79 -3.120000e+001  1.088000e+002    1    1  0.000000e+000  1.000000e+000  1.000000e+000  1.000000e+000  2.000000e+001  3.200000e-002  5.300000e-003
   80 -3.160000e+001  1.084000e+002    1    1  0.000000e+000  1.000000e+000  1.000000e+000  1.000000e+000  2.000000e+001  3.200000e-002  5.300000e-003
   81 -3.200000e+001  1.080000e+002    1    1  0.000000e+000  1.000000e+000  1.000000e+000  1.000000e+000  2.000000e+001  3.200000e-002  5.300000e-003
   82 -3.240000e+001  1.076000e+002    1    1  0.000000e+000  1.000000e+000  1.000000e+000  1.000000e+000  2.000000e+001  3.200000e-002  5.300000e-003
   83 -3.280000e+001  1.072000e+002    1    1  0.000000e+000  1.000000e+000  1.000000e+000  1.000000e+000  2.000000e+001  3.200000e-002  5.300000e-003
   84 -3.320000e+001  1.068000e+002    1    1  0.000000e+000  1.000000e+000  1.000000e+000  1.000000e+000  2.000000e+001  3.200000e-002  5.300000e-003
   85 -3.360000e+001  1.064000e+002    1    1  0.000000e+000  1.000000e+000  1.000000e+000  1.000000e+000  2.000000e+001  3.200000e-002  5.300000e-003
   86 -3.400000e+001  1.060000e+002    1    1  0.000000e+000  1.000000e+000  1.000000e+000  1.000000e+000  2.000000e+001  3.200000e-002  5.300000e-003
   87 -3.440000e+001  1.056000e+002    1    1  0.000000e+000  1.000000e+000  1.000000e+000  1.000000e+000  2.000000e+001  3.200000e-002  5.300000e-003
   88 -3.480000e+001  1.052000e+002    1    1  0.000000e+000  1.000000e+000  1.000000e+000  1.000000e+000  2.000000e+001  3.200000e-002  5.300000e-003
   89 -3.520000e+001  1.048000e+002    1    1  0.000000e+000  1.000000e+000  1.000000e+000  1.000000e+000  2.000000e+001  3.200000e-002  5.300000e-003
   90 -3.560000e+001  1.044000e+002    1    1  0.000000e+000  1.000000e+000  1.000000e+000  1.000000e+000  2.000000e+001  3.200000e-002  5.300000e-003
   91 -3.600000e+001  1.040000e+002    1    1  0.000000e+000  1.000000e+000  1.000000e+000  1.000000e+000  2.000000e+001  3.200000e-002  5.300000e-003
   92 -3.640000e+001  1.036000e+002    1    1  0.000000e+000  1.000000e+000  1.000000e+000  1.000000e+000  2.000000e+001  3.200000e-002  5.300000e-003
   93 -3.680000e+001  1.032000e+002    1    1  0.000000e+000  1.000000e+000  1.000000e+000  1.000000e+000  2.000000e+001  3.200000e-002  5.300000e-003
   94 -3.720000e+001  1.028000e+002    1    1  0.000000e+000  1.000000e+000  1.000000e+000  1.000000e+000  2.000000e+001  3.200000e-002  5.300000e-003
   95 -3.760000e+001  1.024000e+002    1    1  0.000000e+000  1.000000e+000  1.000000e+000  1.000000e+000  2.000000e+001  3.200000e-002  5.300000e-003
   96 -3.800000e+001  1.020000e+002    1    1  0.000000e+000  1.000000e+000  1.000000e+000  1.000000e+000  2.000000e+001  3.200000e-002  5.300000e-003
   97 -3.840000e+001  1.016000e+002    1    1  0.000000e+000  1.000000e+000  1.000000e+000  1.000000e+000  2.000000e+001  3.200000e-002  5.300000e-003
   98 -3.880000e+001  1.012000e+002    1    1  0.000000e+000  1.000000e+000  1.000000e+000  1.000000e+000  2.000000e+001  3.200000e-002  5.300000e-003
   99 -3.920000e+001  1.008000e+002    1    1  0.000000e+000  1.000000e+000  1.000000e+000  1.000000e+000  2.000000e+001  3.200000e-002  5.300000e-003
  100 -3.960000e+001  1.004000e+002    1    1  0.000000e+000  1.000000e+000  1.000000e+000  1.000000e+000  2.000000e+001  3.200000e-002  5.300000e-003
  101 -4.000000e+001  1.000000e+002    1    1  0.000000e+000  1.000000e+000  1.000000e+000  1.000000e+000  2.000000e+001  3.200000e-002  5.300000e-003
    0
